pylon/test/data/bench230.m
function mpc = bench230

%% MATPOWER Case Format : Version 2
mpc.version = '2';

%%%%-----  Power Flow Data  -----%%%%
%%%% system MVA base
mpc.baseMVA = 100;

%%%% bus data
%%	bus_i	type	Pd	Qd	Gs	Bs	area	Vm	Va	baseKV	zone	Vmax	Vmin	lam_P	lam_Q	mu_Vmax	mu_Vmin
mpc.bus = [
	1	2	0	0	0	0	1	1.009	-3.7289	0	1	1.1	0.9	0.0000	0.0000	0.0000	0.0000;
	2	2	0	0	0	0	1	1.026	-4.3736	0	1	1.1	0.9	0.0000	0.0000	0.0000	0.0000;
	3	1	0	0	0	0	1	1.02091	-5.6859	0	1	1.1	0.9	0.0000	0.0000	0.0000	0.0000;
	4	1	0	0	0	0	1	1.00531	-12.0853	0	1	1.1	0.9	0.0000	0.0000	0.0000	0.0000;
	5	1	451.36	155.4	0	0	1	1.00208	-6.5273	0	1	1.1	0.9	0.0000	0.0000	0.0000	0.0000;
	6	1	808.58	271.46	0	0	1	0.99794	-7.1866	0	1	1.1	0.9	0.0000	0.0000	0.0000	0.0000;
	7	2	660	250	0	0	1	1.05	-0.8792	0	1	1.1	0.9	0.0000	0.0000	0.0000	0.0000;
	8	2	180	85	0	0	1	1.02779	-4.7595	0	1	1.1	0.9	0.0000	0.0000	0.0000	0.0000;
	9	2	390	180	0	0	1	1	-4.8789	0	1	1.1	0.9	0.0000	0.0000	0.0000	0.0000;
	10	1	12	6	0	0	1	1.00693	-3.4223	0	1	1.1	0.9	0.0000	0.0000	0.0000	0.0000;
	11	1	0	0	0	0	1	1.01427	-3.2473	0	1	1.1	0.9	0.0000	0.0000	0.0000	0.0000;
	12	1	50	15	0	0	1	1.01477	-5.0205	0	1	1.1	0.9	0.0000	0.0000	0.0000	0.0000;
	13	1	85	35	0	0	1	1.01371	-3.4101	0	1	1.1	0.9	0.0000	0.0000	0.0000	0.0000;
	14	1	0	0	0	0	1	1.0345	-5.0182	0	1	1.1	0.9	0.0000	0.0000	0.0000	0.0000;
	15	1	0	0	0	0	1	1.01569	-4.0447	0	1	1.1	0.9	0.0000	0.0000	0.0000	0.0000;
	16	1	155	35	0	0	1	0.99804	-6.8781	0	1	1.1	0.9	0.0000	0.0000	0.0000	0.0000;
	17	1	60	12	0	0	1	1.0246	-3.7619	0	1	1.1	0.9	0.0000	0.0000	0.0000	0.0000;
	18	2	0	0	0	0	1	1.05	-1.4744	0	1	1.1	0.9	0.0000	0.0000	0.0000	0.0000;
	19	2	0	0	0	0	1	1.04	-3.0304	0	1	1.1	0.9	0.0000	0.0000	0.0000	0.0000;
	20	2	0	0	0	0	1	1.02803	-7.665	0	1	1.1	0.9	0.0000	0.0000	0.0000	0.0000;
	21	2	27	9	0	0	1	1.015	-8.729	0	1	1.1	0.9	0.0000	0.0000	0.0000	0.0000;
	22	2	0	0	0	0	1	1.015	-9.9253	0	1	1.1	0.9	0.0000	0.0000	0.0000	0.0000;
	23	1	0	0	0	0	1	1.01869	-5.2632	0	1	1.1	0.9	0.0000	0.0000	0.0000	0.0000;
	24	1	10	3	0	0	1	1.00722	-9.6621	0	1	1.1	0.9	0.0000	0.0000	0.0000	0.0000;
	25	1	90	30	0	0	1	0.99458	-10.7842	0	1	1.1	0.9	0.0000	0.0000	0.0000	0.0000;
	26	1	0	0	0	0	1	0.99807	-10.2233	0	1	1.1	0.9	0.0000	0.0000	0.0000	0.0000;
	27	1	0	0	0	0	1	1.01324	-6.5128	0	1	1.1	0.9	0.0000	0.0000	0.0000	0.0000;
	28	1	85	28	0	0	1	1.00737	-9.7737	0	1	1.1	0.9	0.0000	0.0000	0.0000	0.0000;
	29	1	27	9	0	0	1	1.03658	-6.634	0	1	1.1	0.9	0.0000	0.0000	0.0000	0.0000;
	30	1	0	0	0	0	1	1.01722	-8.7068	0	1	1.1	0.9	0.0000	0.0000	0.0000	0.0000;
	31	1	10	3	0	0	1	1.0067	-9.6123	0	1	1.1	0.9	0.0000	0.0000	0.0000	0.0000;
	32	1	53	17	0	0	1	1.01612	-7.99	0	1	1.1	0.9	0.0000	0.0000	0.0000	0.0000;
	33	1	20	7	0	0	1	1.00052	-10.109	0	1	1.1	0.9	0.0000	0.0000	0.0000	0.0000;
	34	1	41	14	0	0	1	1.00765	-9.8797	0	1	1.1	0.9	0.0000	0.0000	0.0000	0.0000;
	35	1	106	37	0	0	1	1.01719	-11.9868	0	1	1.1	0.9	0.0000	0.0000	0.0000	0.0000;
	36	1	68	22	0	0	1	1.01816	-12.8573	0	1	1.1	0.9	0.0000	0.0000	0.0000	0.0000;
	37	1	67	22	0	0	1	1.01671	-11.8127	0	1	1.1	0.9	0.0000	0.0000	0.0000	0.0000;
	38	1	50	17	0	0	1	1.0187	-12.1565	0	1	1.1	0.9	0.0000	0.0000	0.0000	0.0000;
	39	1	75	24	0	0	1	1.01251	-13.1686	0	1	1.1	0.9	0.0000	0.0000	0.0000	0.0000;
	40	1	48	16	0	0	1	1.02252	-12.1113	0	1	1.1	0.9	0.0000	0.0000	0.0000	0.0000;
	41	1	58	20	0	0	1	1.02239	-12.7264	0	1	1.1	0.9	0.0000	0.0000	0.0000	0.0000;
	42	1	12	5	0	0	1	1.02462	-11.9339	0	1	1.1	0.9	0.0000	0.0000	0.0000	0.0000;
	43	1	115	55	0	0	1	1.00677	-13.035	0	1	1.1	0.9	0.0000	0.0000	0.0000	0.0000;
	44	1	86	29	0	0	1	1.01647	-12.9216	0	1	1.1	0.9	0.0000	0.0000	0.0000	0.0000;
	45	1	0	0	0	0	1	0.99874	-10.1877	0	1	1.1	0.9	0.0000	0.0000	0.0000	0.0000;
	46	1	0	0	0	0	1	1.0065	-10.9136	0	1	1.1	0.9	0.0000	0.0000	0.0000	0.0000;
	47	1	12	4	0	0	1	1.02955	-7.1666	0	1	1.1	0.9	0.0000	0.0000	0.0000	0.0000;
	48	1	18	6	0	0	1	1.00567	-9.7876	0	1	1.1	0.9	0.0000	0.0000	0.0000	0.0000;
	49	1	72	27	0	0	1	1.01368	-12.519	0	1	1.1	0.9	0.0000	0.0000	0.0000	0.0000;
	50	1	0	0	0	0	1	1.01897	-11.811	0	1	1.1	0.9	0.0000	0.0000	0.0000	0.0000;
	51	1	0	0	0	0	1	1.02745	-4.3373	0	1	1.1	0.9	0.0000	0.0000	0.0000	0.0000;
	52	1	0	0	0	0	1	1.01998	-4.933	0	1	1.1	0.9	0.0000	0.0000	0.0000	0.0000;
	53	1	0	0	0	0	1	1.00601	-9.6498	0	1	1.1	0.9	0.0000	0.0000	0.0000	0.0000;
	54	1	0	0	0	0	1	1.03165	-7.1026	0	1	1.1	0.9	0.0000	0.0000	0.0000	0.0000;
	55	1	0	0	0	0	1	1.01855	-8.0854	0	1	1.1	0.9	0.0000	0.0000	0.0000	0.0000;
	56	1	66	22	0	0	1	1.02489	-11.2089	0	1	1.1	0.9	0.0000	0.0000	0.0000	0.0000;
	57	1	124	42	0	0	1	1.01149	-13.0364	0	1	1.1	0.9	0.0000	0.0000	0.0000	0.0000;
	58	1	136	45	0	0	1	1.00726	-13.27	0	1	1.1	0.9	0.0000	0.0000	0.0000	0.0000;
	59	1	117	37	0	0	1	1.01472	-12.9692	0	1	1.1	0.9	0.0000	0.0000	0.0000	0.0000;
	60	1	83	24	0	0	1	1.00984	-12.9894	0	1	1.1	0.9	0.0000	0.0000	0.0000	0.0000;
	61	1	125	39	0	0	1	1.01847	-13.1177	0	1	1.1	0.9	0.0000	0.0000	0.0000	0.0000;
	62	1	44	16	0	0	1	0.99806	-14.1472	0	1	1.1	0.9	0.0000	0.0000	0.0000	0.0000;
	63	1	14	5	0	0	1	0.99769	-10.7409	0	1	1.1	0.9	0.0000	0.0000	0.0000	0.0000;
	64	1	18	6	0	0	1	0.99201	-11.0016	0	1	1.1	0.9	0.0000	0.0000	0.0000	0.0000;
	65	1	15	5	0	0	1	1.01388	-9.0934	0	1	1.1	0.9	0.0000	0.0000	0.0000	0.0000;
	66	1	44	15	0	0	1	1.01741	-8.6034	0	1	1.1	0.9	0.0000	0.0000	0.0000	0.0000;
	67	1	30	10	0	0	1	1.01319	-9.005	0	1	1.1	0.9	0.0000	0.0000	0.0000	0.0000;
	68	1	28	9	0	0	1	0.99285	-11.3246	0	1	1.1	0.9	0.0000	0.0000	0.0000	0.0000;
	69	1	30	10	0	0	1	1.02082	-8.2379	0	1	1.1	0.9	0.0000	0.0000	0.0000	0.0000;
	70	1	0	0	0	0	1	0.99457	-10.9033	0	1	1.1	0.9	0.0000	0.0000	0.0000	0.0000;
	71	1	0	0	0	0	1	1.01355	-8.9012	0	1	1.1	0.9	0.0000	0.0000	0.0000	0.0000;
	72	1	59	20	0	0	1	1.00098	-10.2886	0	1	1.1	0.9	0.0000	0.0000	0.0000	0.0000;
	73	1	30	10	0	0	1	1.00621	-9.7554	0	1	1.1	0.9	0.0000	0.0000	0.0000	0.0000;
	74	1	0	0	0	0	1	1.01175	-9.1831	0	1	1.1	0.9	0.0000	0.0000	0.0000	0.0000;
	75	1	0	0	0	0	1	1.00749	-6.5289	0	1	1.1	0.9	0.0000	0.0000	0.0000	0.0000;
	76	2	423	210	0	0	1	1.035	-0.8412	0	1	1.1	0.9	0.0000	0.0000	0.0000	0.0000;
	77	1	75	5	0	0	1	1.03155	-5.2121	0	1	1.1	0.9	0.0000	0.0000	0.0000	0.0000;
	78	2	365	176.8	0	0	1	1.035	-4.9326	0	1	1.1	0.9	0.0000	0.0000	0.0000	0.0000;
	79	1	0	0	0	0	1	1.03502	-5.1036	0	1	1.1	0.9	0.0000	0.0000	0.0000	0.0000;
	80	1	73	35	0	0	1	1.03428	-6.3433	0	1	1.1	0.9	0.0000	0.0000	0.0000	0.0000;
	81	1	70	35	0	0	1	1.01781	-4.0749	0	1	1.1	0.9	0.0000	0.0000	0.0000	0.0000;
	82	1	72	35	0	0	1	1.02544	-2.7926	0	1	1.1	0.9	0.0000	0.0000	0.0000	0.0000;
	83	1	0	0	0	0	1	0.99826	-2.8417	0	1	1.1	0.9	0.0000	0.0000	0.0000	0.0000;
	84	1	0	0	0	0	1	1.00741	-9.6029	0	1	1.1	0.9	0.0000	0.0000	0.0000	0.0000;
	85	1	46	23	0	0	1	1.01846	-14.8535	0	1	1.1	0.9	0.0000	0.0000	0.0000	0.0000;
	86	1	61	30	0	0	1	0.97097	-18.7722	0	1	1.1	0.9	0.0000	0.0000	0.0000	0.0000;
	87	1	8	4	0	0	1	1.0291	-6.286	0	1	1.1	0.9	0.0000	0.0000	0.0000	0.0000;
	88	2	0	0	0	0	1	1.035	3.9061	0	1	1.1	0.9	0.0000	0.0000	0.0000	0.0000;
	89	1	29	10	0	0	1	1.01435	-8.9135	0	1	1.1	0.9	0.0000	0.0000	0.0000	0.0000;
	90	1	0	0	0	0	1	1.00908	-6.5727	0	1	1.1	0.9	0.0000	0.0000	0.0000	0.0000;
	91	2	1	0	0	0	1	1.00464	-3.1809	0	1	1.1	0.9	0.0000	0.0000	0.0000	0.0000;
	92	1	0	0	0	0	1	1.00622	-3.8976	0	1	1.1	0.9	0.0000	0.0000	0.0000	0.0000;
	93	1	0	0	0	0	1	0.97488	-6.4463	0	1	1.1	0.9	0.0000	0.0000	0.0000	0.0000;
	94	1	0	0	0	0	1	1.00403	-2.9747	0	1	1.1	0.9	0.0000	0.0000	0.0000	0.0000;
	95	1	0	0	0	0	1	1.04462	-15.3419	0	1	1.1	0.9	0.0000	0.0000	0.0000	0.0000;
	96	1	0	0	0	0	1	1.01976	-15.5079	0	1	1.1	0.9	0.0000	0.0000	0.0000	0.0000;
	97	1	0	0	0	0	1	1.01677	-15.7232	0	1	1.1	0.9	0.0000	0.0000	0.0000	0.0000;
	98	2	0	0	0	0	1	1.01068	-0.9971	0	1	1.1	0.9	0.0000	0.0000	0.0000	0.0000;
	99	1	0	0	0	-600	1	0.97731	-2.6167	0	1	1.1	0.9	0.0000	0.0000	0.0000	0.0000;
	100	1	0	0	0	-300	1	1.00511	-7.8731	0	1	1.1	0.9	0.0000	0.0000	0.0000	0.0000;
	101	1	0	0	0	0	1	1.06533	-7.3114	0	1	1.1	0.9	0.0000	0.0000	0.0000	0.0000;
	102	2	0	0	0	-150	1	0.98301	-1.0732	0	1	1.1	0.9	0.0000	0.0000	0.0000	0.0000;
	103	2	0	0	0	0	1	1.025	-2.6658	0	1	1.1	0.9	0.0000	0.0000	0.0000	0.0000;
	104	1	0	0	0	0	1	1.0104	-10.1116	0	1	1.1	0.9	0.0000	0.0000	0.0000	0.0000;
	105	1	0	0	0	0	1	1.04191	-9.8214	0	1	1.1	0.9	0.0000	0.0000	0.0000	0.0000;
	106	1	0	0	0	-450	1	1.00035	-12.8995	0	1	1.1	0.9	0.0000	0.0000	0.0000	0.0000;
	107	1	0	0	0	0	1	0.9905	0.2397	0	1	1.1	0.9	0.0000	0.0000	0.0000	0.0000;
	108	1	0	0	0	0	1	1.00032	-14.126	0	1	1.1	0.9	0.0000	0.0000	0.0000	0.0000;
	109	1	0	0	0	0	1	0.98408	-1.5592	0	1	1.1	0.9	0.0000	0.0000	0.0000	0.0000;
	110	1	0	0	0	-300	1	0.97694	-3.6322	0	1	1.1	0.9	0.0000	0.0000	0.0000	0.0000;
	111	1	0	0	0	0	1	1.0656	-5.3865	0	1	1.1	0.9	0.0000	0.0000	0.0000	0.0000;
	112	2	0	0	0	0	1	0.989	0.3202	0	1	1.1	0.9	0.0000	0.0000	0.0000	0.0000;
	113	1	64.97	6.98	0	51.3	1	0.99542	-20.3626	0	1	1.1	0.9	0.0000	0.0000	0.0000	0.0000;
	114	1	19.51	0	0	0	1	0.99304	-13.4772	0	1	1.1	0.9	0.0000	0.0000	0.0000	0.0000;
	115	1	56.02	14.06	0	51.3	1	1.00288	-19.6112	0	1	1.1	0.9	0.0000	0.0000	0.0000	0.0000;
	116	1	70.31	16.41	0	0	1	0.99611	-20.5788	0	1	1.1	0.9	0.0000	0.0000	0.0000	0.0000;
	117	1	13.85	3.15	0	0	1	0.99508	-19.523	0	1	1.1	0.9	0.0000	0.0000	0.0000	0.0000;
	118	1	29.48	6.29	0	0	1	0.98673	-18.3837	0	1	1.1	0.9	0.0000	0.0000	0.0000	0.0000;
	119	2	61.51	12.77	0	0	1	1	-20.0422	0	1	1.1	0.9	0.0000	0.0000	0.0000	0.0000;
	120	1	16.47	4.3	0	0	1	0.99887	-20.6453	0	1	1.1	0.9	0.0000	0.0000	0.0000	0.0000;
	121	1	30.39	9.63	0	0	1	0.98576	-21.352	0	1	1.1	0.9	0.0000	0.0000	0.0000	0.0000;
	122	1	18.77	7.05	0	0	1	0.98794	-22.1868	0	1	1.1	0.9	0.0000	0.0000	0.0000	0.0000;
	123	1	16.47	7.24	0	0	1	0.98855	-22.4248	0	1	1.1	0.9	0.0000	0.0000	0.0000	0.0000;
	124	1	0	0	0	0	1	1.00253	-18.767	0	1	1.1	0.9	0.0000	0.0000	0.0000	0.0000;
	125	2	49.67	-2.45	0	100	1	1	-31.1864	0	1	1.1	0.9	0.0000	0.0000	0.0000	0.0000;
	126	1	147.77	-9.83	0	50.4	1	0.98378	-34.1465	0	1	1.1	0.9	0.0000	0.0000	0.0000	0.0000;
	127	1	50.35	3.46	0	0	1	0.99193	-31.0857	0	1	1.1	0.9	0.0000	0.0000	0.0000	0.0000;
	128	1	33.31	-8.35	0	0	1	1.00397	-24.9099	0	1	1.1	0.9	0.0000	0.0000	0.0000	0.0000;
	129	1	38.45	-9.99	0	0	1	1.00009	-30.5802	0	1	1.1	0.9	0.0000	0.0000	0.0000	0.0000;
	130	1	19.2	7.03	0	0	1	0.99906	-31.3872	0	1	1.1	0.9	0.0000	0.0000	0.0000	0.0000;
	131	1	40.81	7.55	0	0	1	0.99735	-31.8046	0	1	1.1	0.9	0.0000	0.0000	0.0000	0.0000;
	132	1	141.61	61.79	0	50.4	1	0.98134	-33.7838	0	1	1.1	0.9	0.0000	0.0000	0.0000	0.0000;
	133	1	47.03	16.56	0	0	1	0.99163	-28.5409	0	1	1.1	0.9	0.0000	0.0000	0.0000	0.0000;
	134	2	0	0	0	0	1	1	-23.7316	0	1	1.1	0.9	0.0000	0.0000	0.0000	0.0000;
	135	2	0	0	0	0	1	0.99703	-22.6084	0	1	1.1	0.9	0.0000	0.0000	0.0000	0.0000;
	136	1	127.77	32.73	0	0	1	1.02199	-18.3309	0	1	1.1	0.9	0.0000	0.0000	0.0000	0.0000;
	137	1	75.09	-15	0	0	1	1.00099	-22.9111	0	1	1.1	0.9	0.0000	0.0000	0.0000	0.0000;
	138	1	128.54	58.69	0	50	1	1.00157	-22.2262	0	1	1.1	0.9	0.0000	0.0000	0.0000	0.0000;
	139	1	9.04	2.24	0	0	1	1.02464	-18.3336	0	1	1.1	0.9	0.0000	0.0000	0.0000	0.0000;
	140	1	13.43	4.51	0	0	1	1.00447	-22.1202	0	1	1.1	0.9	0.0000	0.0000	0.0000	0.0000;
	141	1	19.72	5.87	0	0	1	1.00326	-22.1384	0	1	1.1	0.9	0.0000	0.0000	0.0000	0.0000;
	142	1	25.07	6.71	0	0	1	1.00055	-22.5483	0	1	1.1	0.9	0.0000	0.0000	0.0000	0.0000;
	143	1	13.22	2.83	0	0	1	1.00659	-21.8708	0	1	1.1	0.9	0.0000	0.0000	0.0000	0.0000;
	144	1	16.05	5.24	0	0	1	1.00137	-22.0065	0	1	1.1	0.9	0.0000	0.0000	0.0000	0.0000;
	145	1	101.75	30.63	0	0	1	1.00713	-19.5981	0	1	1.1	0.9	0.0000	0.0000	0.0000	0.0000;
	146	1	3.46	1.15	0	0	1	1.01841	-19.6661	0	1	1.1	0.9	0.0000	0.0000	0.0000	0.0000;
	147	1	29.77	-24.65	0	0	1	1.02098	-19.1563	0	1	1.1	0.9	0.0000	0.0000	0.0000	0.0000;
	148	1	32.81	-18.68	0	0	1	1.02582	-18.4848	0	1	1.1	0.9	0.0000	0.0000	0.0000	0.0000;
	149	1	15.94	-3.04	0	0	1	1.01061	-20.0949	0	1	1.1	0.9	0.0000	0.0000	0.0000	0.0000;
	150	1	12.81	3.34	0	0	1	1.01733	-16.9833	0	1	1.1	0.9	0.0000	0.0000	0.0000	0.0000;
	151	2	27.38	11.96	0	201.6	1	1.017	-16.3278	0	1	1.1	0.9	0.0000	0.0000	0.0000	0.0000;
	152	1	11.22	-2.31	0	0	1	1.01552	-17.2607	0	1	1.1	0.9	0.0000	0.0000	0.0000	0.0000;
	153	2	21.93	4.74	0	50	1	1.01523	-18.8167	0	1	1.1	0.9	0.0000	0.0000	0.0000	0.0000;
	154	1	27.59	-6.4	0	0	1	1.01534	-18.6163	0	1	1.1	0.9	0.0000	0.0000	0.0000	0.0000;
	155	1	12.69	4.51	0	0	1	1.01932	-16.5469	0	1	1.1	0.9	0.0000	0.0000	0.0000	0.0000;
	156	1	34.09	-19.41	0	0	1	1.0312	-14.6925	0	1	1.1	0.9	0.0000	0.0000	0.0000	0.0000;
	157	2	54.76	11.54	0	50	1	1.01771	-14.8971	0	1	1.1	0.9	0.0000	0.0000	0.0000	0.0000;
	158	1	17.62	6.19	0	0	1	1.03084	-13.5135	0	1	1.1	0.9	0.0000	0.0000	0.0000	0.0000;
	159	1	35.35	21.5	0	0	1	1.04648	-7.3644	0	1	1.1	0.9	0.0000	0.0000	0.0000	0.0000;
	160	1	70.39	37.24	0	50.4	1	1.03709	-7.9383	0	1	1.1	0.9	0.0000	0.0000	0.0000	0.0000;
	161	1	5.45	1.99	0	0	1	1.04031	-7.7761	0	1	1.1	0.9	0.0000	0.0000	0.0000	0.0000;
	162	1	20.98	12.06	0	0	1	1.04265	-7.6053	0	1	1.1	0.9	0.0000	0.0000	0.0000	0.0000;
	163	1	46.79	-3.04	0	0	1	1.04101	-7.8222	0	1	1.1	0.9	0.0000	0.0000	0.0000	0.0000;
	164	1	15.73	5.45	0	0	1	1.03257	-7.9233	0	1	1.1	0.9	0.0000	0.0000	0.0000	0.0000;
	165	1	13.74	4.62	0	0	1	1.0416	-7.6882	0	1	1.1	0.9	0.0000	0.0000	0.0000	0.0000;
	166	1	5.77	1.99	0	0	1	1.03624	-7.8476	0	1	1.1	0.9	0.0000	0.0000	0.0000	0.0000;
	167	1	5.56	1.89	0	0	1	1.04334	-7.6851	0	1	1.1	0.9	0.0000	0.0000	0.0000	0.0000;
	168	1	15.73	4.51	0	0	1	1.01875	-13.1123	0	1	1.1	0.9	0.0000	0.0000	0.0000	0.0000;
	169	1	36.4	2.1	0	0	1	1.01644	-7.3861	0	1	1.1	0.9	0.0000	0.0000	0.0000	0.0000;
	170	1	25.18	-4.14	0	0	1	1.02754	-9.3353	0	1	1.1	0.9	0.0000	0.0000	0.0000	0.0000;
	171	1	62.31	-10.91	0	0	1	1.02924	-7.3895	0	1	1.1	0.9	0.0000	0.0000	0.0000	0.0000;
	172	2	2.6	-0.53	0	0	1	1.02996	-5.6263	0	1	1.1	0.9	0.0000	0.0000	0.0000	0.0000;
	173	1	14.43	2.82	0	0	1	1.02699	-7.2602	0	1	1.1	0.9	0.0000	0.0000	0.0000	0.0000;
	174	1	64.41	-0.63	0	0	1	1.00864	-11.7332	0	1	1.1	0.9	0.0000	0.0000	0.0000	0.0000;
	175	1	19.3	5.14	0	0	1	1.0255	-8.9931	0	1	1.1	0.9	0.0000	0.0000	0.0000	0.0000;
	176	1	19.09	6.4	0	0	1	1.02104	-11.7162	0	1	1.1	0.9	0.0000	0.0000	0.0000	0.0000;
	177	1	3.78	1.15	0	0	1	1.04464	-6.4808	0	1	1.1	0.9	0.0000	0.0000	0.0000	0.0000;
	178	1	14.79	-17.83	0	0	1	1.05276	-6.8455	0	1	1.1	0.9	0.0000	0.0000	0.0000	0.0000;
	179	1	71.65	16.26	0	50.4	1	1.03109	-11.1072	0	1	1.1	0.9	0.0000	0.0000	0.0000	0.0000;
	180	1	84.43	-7.18	0	0	1	1.02583	-11.2765	0	1	1.1	0.9	0.0000	0.0000	0.0000	0.0000;
	181	2	36.4	-4.72	0	50.4	1	1.01405	-10.753	0	1	1.1	0.9	0.0000	0.0000	0.0000	0.0000;
	182	1	6.71	2.2	0	0	1	1.00659	-13.672	0	1	1.1	0.9	0.0000	0.0000	0.0000	0.0000;
	183	1	3.67	0.63	0	0	1	1.01197	-11.4839	0	1	1.1	0.9	0.0000	0.0000	0.0000	0.0000;
	184	1	3.57	1.47	0	0	1	1.02965	-9.6725	0	1	1.1	0.9	0.0000	0.0000	0.0000	0.0000;
	185	1	23.81	1.36	0	0	1	0.99716	-32.0067	0	1	1.1	0.9	0.0000	0.0000	0.0000	0.0000;
	186	1	0	0	0	0	1	1.03336	-12.3087	0	1	1.1	0.9	0.0000	0.0000	0.0000	0.0000;
	187	1	0	0	0	0	1	1.02263	-15.4734	0	1	1.1	0.9	0.0000	0.0000	0.0000	0.0000;
	188	1	11.43	3.04	0	0	1	1.01691	-16.7575	0	1	1.1	0.9	0.0000	0.0000	0.0000	0.0000;
	189	1	0	0	0	0	1	1.03054	-10.5712	0	1	1.1	0.9	0.0000	0.0000	0.0000	0.0000;
	190	1	0	0	0	0	1	1.05348	-6.746	0	1	1.1	0.9	0.0000	0.0000	0.0000	0.0000;
	191	1	0	0	0	0	1	1.02842	-7.8577	0	1	1.1	0.9	0.0000	0.0000	0.0000	0.0000;
	192	1	10.59	4.51	0	0	1	1.01506	-8.8155	0	1	1.1	0.9	0.0000	0.0000	0.0000	0.0000;
	193	1	6.4	1.15	0	0	1	1.01967	-10.2257	0	1	1.1	0.9	0.0000	0.0000	0.0000	0.0000;
	194	1	11.96	6.19	0	0	1	1.00478	-15.4204	0	1	1.1	0.9	0.0000	0.0000	0.0000	0.0000;
	195	1	4.83	1.71	0	0	1	1.01149	-16.0205	0	1	1.1	0.9	0.0000	0.0000	0.0000	0.0000;
	196	1	21.19	6.5	0	0	1	1.00792	-15.7772	0	1	1.1	0.9	0.0000	0.0000	0.0000	0.0000;
	197	2	24.23	3.25	0	50	1	1.00432	-15.163	0	1	1.1	0.9	0.0000	0.0000	0.0000	0.0000;
	198	1	10.59	3.78	0	0	1	1.0068	-15.7029	0	1	1.1	0.9	0.0000	0.0000	0.0000	0.0000;
	199	2	50.46	-32.1	0	50	1	1.01378	-8.251	0	1	1.1	0.9	0.0000	0.0000	0.0000	0.0000;
	200	1	19.62	7.76	0	0	1	0.99801	-12.3483	0	1	1.1	0.9	0.0000	0.0000	0.0000	0.0000;
...
];

%%%% branch data
%%	fbus	tbus	r	x	b	rateA	rateB	rateC	ratio	angle	status	angmin	angmax	Pf	Qf	Pt	Qt	mu_Sf	mu_St	mu_angmin	mu_angmax
mpc.branch = [
	1	5	0.0028	0.0315	0.3416	1000	1250	0	1	0	1	-360	360	0.0000	0.0000	0.0000	0.0000	0.0000	0.0000	0.0000	0.0000;
	1	5	0.0028	0.0315	0.3416	1000	1250	0	1	0	1	-360	360	0.0000	0.0000	0.0000	0.0000	0.0000	0.0000	0.0000	0.0000;
	1	6	0.00279	0.0307	0.3328	1000	1250	0	1	0	1	-360	360	0.0000	0.0000	0.0000	0.0000	0.0000	0.0000	0.0000	0.0000;
	1	6	0.00279	0.0307	0.3328	1000	1250	0	1	0	1	-360	360	0.0000	0.0000	0.0000	0.0000	0.0000	0.0000	0.0000	0.0000;
	1	92	0.00071	0.00781	0.0848	1000	1250	0	1	0	1	-360	360	0.0000	0.0000	0.0000	0.0000	0.0000	0.0000	0.0000	0.0000;
	1	92	0.00071	0.00781	0.0848	1000	1250	0	1	0	1	-360	360	0.0000	0.0000	0.0000	0.0000	0.0000	0.0000	0.0000	0.0000;
	2	23	0.00176	0.0189	0.334	1200	1200	0	1	0	1	-360	360	0.0000	0.0000	0.0000	0.0000	0.0000	0.0000	0.0000	0.0000;
	2	90	0.004	0.0436	0.4732	1000	1250	0	1	0	1	-360	360	0.0000	0.0000	0.0000	0.0000	0.0000	0.0000	0.0000	0.0000;
	2	90	0.004	0.0436	0.4732	1000	1250	0	1	0	1	-360	360	0.0000	0.0000	0.0000	0.0000	0.0000	0.0000	0.0000	0.0000;
	2	90	0.0043	0.0473	0.513	1000	1250	0	1	0	1	-360	360	0.0000	0.0000	0.0000	0.0000	0.0000	0.0000	0.0000	0.0000;
	2	537	0.0022	0.0264	0.286	1000	1250	0	1	0	1	-360	360	0.0000	0.0000	0.0000	0.0000	0.0000	0.0000	0.0000	0.0000;
	3	55	0.0505	0.146	0.0312	96	96	0	1	0	1	-360	360	0.0000	0.0000	0.0000	0.0000	0.0000	0.0000	0.0000	0.0000;
	3	650	0.0159	0.0694	0.0178	181	222	0	1	0	1	-360	360	0.0000	0.0000	0.0000	0.0000	0.0000	0.0000	0.0000	0.0000;
	3	1449	0.0666	0.21	0.042	140	140	0	1	0	1	-360	360	0.0000	0.0000	0.0000	0.0000	0.0000	0.0000	0.0000	0.0000;
	4	358	0.004	0.021	0.0054	185	217	0	1	0	1	-360	360	0.0000	0.0000	0.0000	0.0000	0.0000	0.0000	0.0000	0.0000;
	4	521	0.0124	0.0637	0.0134	190	220	0	1	0	1	-360	360	0.0000	0.0000	0.0000	0.0000	0.0000	0.0000	0.0000	0.0000;
	5	90	0.00406	0.0447	0.4846	1000	1250	0	1	0	1	-360	360	0.0000	0.0000	0.0000	0.0000	0.0000	0.0000	0.0000	0.0000;
	5	90	0.00406	0.0447	0.4846	1000	1250	0	1	0	1	-360	360	0.0000	0.0000	0.0000	0.0000	0.0000	0.0000	0.0000	0.0000;
	5	343	7e-05	0.0106	0.0028	1000	1000	0	1	0	1	-360	360	0.0000	0.0000	0.0000	0.0000	0.0000	0.0000	0.0000	0.0000;
	6	90	0.00402	0.0442	0.4792	1000	1250	0	1	0	1	-360	360	0.0000	0.0000	0.0000	0.0000	0.0000	0.0000	0.0000	0.0000;
	6	90	0.00402	0.0442	0.4792	1000	1250	0	1	0	1	-360	360	0.0000	0.0000	0.0000	0.0000	0.0000	0.0000	0.0000	0.0000;
	6	343	9e-05	0.0108	0.0052	1000	1000	0	1	0	1	-360	360	0.0000	0.0000	0.0000	0.0000	0.0000	0.0000	0.0000	0.0000;
	7	10	0.0144	0.0772	0.016	200	250	0	1	0	1	-360	360	0.0000	0.0000	0.0000	0.0000	0.0000	0.0000	0.0000	0.0000;
	7	12	0.027	0.105	0.026	0	200	0	1	0	1	-360	360	0.0000	0.0000	0.0000	0.0000	0.0000	0.0000	0.0000	0.0000;
	7	13	0.015	0.0858	0	200	250	0	1	0	1	-360	360	0.0000	0.0000	0.0000	0.0000	0.0000	0.0000	0.0000	0.0000;
	7	17	0.0207	0.136	0.036	200	250	0	1	0	1	-360	360	0.0000	0.0000	0.0000	0.0000	0.0000	0.0000	0.0000	0.0000;
	8	9	0.0165	0.0517	0	0	160	0	1	0	1	-360	360	0.0000	0.0000	0.0000	0.0000	0.0000	0.0000	0.0000	0.0000;
	9	16	0.1074	0.149	0	0	0	0	1	0	1	-360	360	0.0000	0.0000	0.0000	0.0000	0.0000	0.0000	0.0000	0.0000;
	10	11	0.0033	0.0177	0	200	250	0	1	0	1	-360	360	0.0000	0.0000	0.0000	0.0000	0.0000	0.0000	0.0000	0.0000;
	11	13	0.0062	0.0388	0.008	0	140	0	1	0	1	-360	360	0.0000	0.0000	0.0000	0.0000	0.0000	0.0000	0.0000	0.0000;
	11	15	0.01265	0.0675	0	200	250	0	1	0	1	-360	360	0.0000	0.0000	0.0000	0.0000	0.0000	0.0000	0.0000	0.0000;
	11	18	0.0062	0.0453	0.02	300	350	0	1	0	1	-360	360	0.0000	0.0000	0.0000	0.0000	0.0000	0.0000	0.0000	0.0000;
	11	83	0.0124	0.0689	0.023	200	200	0	1	0	1	-360	360	0.0000	0.0000	0.0000	0.0000	0.0000	0.0000	0.0000	0.0000;
	12	27	0.02299	0.09699	0.024	160	160	0	1	0	1	-360	360	0.0000	0.0000	0.0000	0.0000	0.0000	0.0000	0.0000	0.0000;
	13	18	0.0148	0.0795	0.04	250	300	0	1	0	1	-360	360	0.0000	0.0000	0.0000	0.0000	0.0000	0.0000	0.0000	0.0000;
	13	754	0.0172	0.1127	0.03	300	350	0	1	0	1	-360	360	0.0000	0.0000	0.0000	0.0000	0.0000	0.0000	0.0000	0.0000;
	14	78	0.0018	0.0119	0.0092	250	300	0	1	0	1	-360	360	0.0000	0.0000	0.0000	0.0000	0.0000	0.0000	0.0000	0.0000;
	14	788	0.0126	0.082	0.036	250	300	0	1	0	1	-360	360	0.0000	0.0000	0.0000	0.0000	0.0000	0.0000	0.0000	0.0000;
	15	18	0.00703	0.0436	0.02	300	350	0	1	0	1	-360	360	0.0000	0.0000	0.0000	0.0000	0.0000	0.0000	0.0000	0.0000;
	17	823	0.0159	0.0866	0.021	200	250	0	1	0	1	-360	360	0.0000	0.0000	0.0000	0.0000	0.0000	0.0000	0.0000	0.0000;
	19	23	0.00142	0.01492	0.276	1207	1207	0	1	0	1	-360	360	0.0000	0.0000	0.0000	0.0000	0.0000	0.0000	0.0000	0.0000;
	19	51	0.00055	0.00582	0.108	1200	1200	0	1	0	1	-360	360	0.0000	0.0000	0.0000	0.0000	0.0000	0.0000	0.0000	0.0000;
	19	52	0.00134	0.01406	0.2576	1200	1200	0	1	0	1	-360	360	0.0000	0.0000	0.0000	0.0000	0.0000	0.0000	0.0000	0.0000;
	20	21	0.00078	0.00711	0.0042	382	382	0	1	0	1	-360	360	0.0000	0.0000	0.0000	0.0000	0.0000	0.0000	0.0000	0.0000;
	20	29	0.00321	0.0336	0.0158	382	382	0	1	0	1	-360	360	0.0000	0.0000	0.0000	0.0000	0.0000	0.0000	0.0000	0.0000;
	21	24	0.0026	0.0221	0.0112	382	382	0	1	0	1	-360	360	0.0000	0.0000	0.0000	0.0000	0.0000	0.0000	0.0000	0.0000;
	21	31	0.00058	0.00481	0.01	764	764	0	1	0	1	-360	360	0.0000	0.0000	0.0000	0.0000	0.0000	0.0000	0.0000	0.0000;
	21	71	0.00049	0.00412	0.0022	382	382	0	1	0	1	-360	360	0.0000	0.0000	0.0000	0.0000	0.0000	0.0000	0.0000	0.0000;
	22	46	0.004	0.0685	0	56	56	0	1	0	1	-360	360	0.0000	0.0000	0.0000	0.0000	0.0000	0.0000	0.0000	0.0000;
	23	51	0.00086	0.00909	0.1684	1200	1200	0	1	0	1	-360	360	0.0000	0.0000	0.0000	0.0000	0.0000	0.0000	0.0000	0.0000;
	24	25	0.0042	0.0244	0.0066	215	215	0	1	0	1	-360	360	0.0000	0.0000	0.0000	0.0000	0.0000	0.0000	0.0000	0.0000;
	24	28	0.00091	0.00762	0.0038	286	286	0	1	0	1	-360	360	0.0000	0.0000	0.0000	0.0000	0.0000	0.0000	0.0000	0.0000;
	24	67	0.00229	0.01373	0.0036	215	215	0	1	0	1	-360	360	0.0000	0.0000	0.0000	0.0000	0.0000	0.0000	0.0000	0.0000;
	24	71	0.00214	0.01808	0.0092	382	382	0	1	0	1	-360	360	0.0000	0.0000	0.0000	0.0000	0.0000	0.0000	0.0000	0.0000;
	25	30	0.0086	0.05	0.0136	215	215	0	1	0	1	-360	360	0.0000	0.0000	0.0000	0.0000	0.0000	0.0000	0.0000	0.0000;
	25	64	0.00067	0.00533	0.0302	382	382	0	1	0	1	-360	360	0.0000	0.0000	0.0000	0.0000	0.0000	0.0000	0.0000	0.0000;
	26	33	0.00104	0.00583	0.0208	215	215	0	1	0	1	-360	360	0.0000	0.0000	0.0000	0.0000	0.0000	0.0000	0.0000	0.0000;
	26	45	0.0006	0.0035	0.001	215	215	0	1	0	1	-360	360	0.0000	0.0000	0.0000	0.0000	0.0000	0.0000	0.0000	0.0000;
	27	32	0.0482	0.148	0.0354	141	141	0	1	0	1	-360	360	0.0000	0.0000	0.0000	0.0000	0.0000	0.0000	0.0000	0.0000;
	27	75	0.0053	0.0336	0.00894	215	215	0	1	0	1	-360	360	0.0000	0.0000	0.0000	0.0000	0.0000	0.0000	0.0000	0.0000;
	27	668	0.0054	0.0325	0.009	227	280	0	1	0	1	-360	360	0.0000	0.0000	0.0000	0.0000	0.0000	0.0000	0.0000	0.0000;
	27	698	0.0158	0.0716	0.0344	286	286	0	1	0	1	-360	360	0.0000	0.0000	0.0000	0.0000	0.0000	0.0000	0.0000	0.0000;
	28	34	0.0036	0.0211	0.0058	215	215	0	1	0	1	-360	360	0.0000	0.0000	0.0000	0.0000	0.0000	0.0000	0.0000	0.0000;
	28	66	0.00232	0.01932	0.0062	286	286	0	1	0	1	-360	360	0.0000	0.0000	0.0000	0.0000	0.0000	0.0000	0.0000	0.0000;
	29	47	0.0033	0.0217	0.0082	186	186	0	1	0	1	-360	360	0.0000	0.0000	0.0000	0.0000	0.0000	0.0000	0.0000	0.0000;
	29	67	0.00665	0.0383	0.0124	186	186	0	1	0	1	-360	360	0.0000	0.0000	0.0000	0.0000	0.0000	0.0000	0.0000	0.0000;
	29	69	0.00243	0.02016	0.0064	286	286	0	1	0	1	-360	360	0.0000	0.0000	0.0000	0.0000	0.0000	0.0000	0.0000	0.0000;
	30	34	0.00213	0.02078	0.0104	286	286	0	1	0	1	-360	360	0.0000	0.0000	0.0000	0.0000	0.0000	0.0000	0.0000	0.0000;
	30	48	0.00374	0.02184	0.006	215	215	0	1	0	1	-360	360	0.0000	0.0000	0.0000	0.0000	0.0000	0.0000	0.0000	0.0000;
	30	65	0.00836	0.0488	0.0132	215	215	0	1	0	1	-360	360	0.0000	0.0000	0.0000	0.0000	0.0000	0.0000	0.0000	0.0000;
	30	74	0.0016	0.0094	0.0026	215	215	0	1	0	1	-360	360	0.0000	0.0000	0.0000	0.0000	0.0000	0.0000	0.0000	0.0000;
	31	45	0.0074	0.0321	0.0222	215	215	0	1	0	1	-360	360	0.0000	0.0000	0.0000	0.0000	0.0000	0.0000	0.0000	0.0000;
	31	63	0.0015	0.0116	0.0066	382	382	0	1	0	1	-360	360	0.0000	0.0000	0.0000	0.0000	0.0000	0.0000	0.0000	0.0000;
	31	759	0.0009	0.0108	0.0036	382	382	0	1	0	1	-360	360	0.0000	0.0000	0.0000	0.0000	0.0000	0.0000	0.0000	0.0000;
	32	47	0.0095	0.0457	0.0118	186	186	0	1	0	1	-360	360	0.0000	0.0000	0.0000	0.0000	0.0000	0.0000	0.0000	0.0000;
	33	53	0.00101	0.0058	0.0064	430	430	0	1	0	1	-360	360	0.0000	0.0000	0.0000	0.0000	0.0000	0.0000	0.0000	0.0000;
	35	56	0.01573	0.08918	0	1000	1000	0	1	0	1	-360	360	0.0000	0.0000	0.0000	0.0000	0.0000	0.0000	0.0000	0.0000;
	35	58	0.01335	0.06926	0	1000	1000	0	1	0	1	-360	360	0.0000	0.0000	0.0000	0.0000	0.0000	0.0000	0.0000	0.0000;
	36	39	0.00211	0.01093	0	1000	1000	0	1	0	1	-360	360	0.0000	0.0000	0.0000	0.0000	0.0000	0.0000	0.0000	0.0000;
	36	41	0.06337	0.17614	0	1000	1000	0	1	0	1	-360	360	0.0000	0.0000	0.0000	0.0000	0.0000	0.0000	0.0000	0.0000;
	36	59	0.01482	0.04783	0	1000	1000	0	1	0	1	-360	360	0.0000	0.0000	0.0000	0.0000	0.0000	0.0000	0.0000	0.0000;
	37	41	0.01453	0.07641	0	1000	1000	0	1	0	1	-360	360	0.0000	0.0000	0.0000	0.0000	0.0000	0.0000	0.0000	0.0000;
	37	58	0.01862	0.09861	0	1000	1000	0	1	0	1	-360	360	0.0000	0.0000	0.0000	0.0000	0.0000	0.0000	0.0000	0.0000;
	37	59	0.0181	0.0907	0	1000	1000	0	1	0	1	-360	360	0.0000	0.0000	0.0000	0.0000	0.0000	0.0000	0.0000	0.0000;
	38	49	0.01089	0.05219	0	1000	1000	0	1	0	1	-360	360	0.0000	0.0000	0.0000	0.0000	0.0000	0.0000	0.0000	0.0000;
	38	57	0.05768	0.22642	0	1000	1000	0	1	0	1	-360	360	0.0000	0.0000	0.0000	0.0000	0.0000	0.0000	0.0000	0.0000;
	38	60	0.09666	0.3267	0	1000	1000	0	1	0	1	-360	360	0.0000	0.0000	0.0000	0.0000	0.0000	0.0000	0.0000	0.0000;
	38	62	0.0141	0.06627	0	1000	1000	0	1	0	1	-360	360	0.0000	0.0000	0.0000	0.0000	0.0000	0.0000	0.0000	0.0000;
	38	658	0.09325	0.1171	0	71	71	0	1	0	1	-360	360	0.0000	0.0000	0.0000	0.0000	0.0000	0.0000	0.0000	0.0000;
	39	57	0.00358	0.01802	0	1000	1000	0	1	0	1	-360	360	0.0000	0.0000	0.0000	0.0000	0.0000	0.0000	0.0000	0.0000;
	39	58	0.0299	0.15682	0	1000	1000	0	1	0	1	-360	360	0.0000	0.0000	0.0000	0.0000	0.0000	0.0000	0.0000	0.0000;
	39	60	0.07873	0.23277	0	1000	1000	0	1	0	1	-360	360	0.0000	0.0000	0.0000	0.0000	0.0000	0.0000	0.0000	0.0000;
	39	61	0.04698	0.23962	0	1000	1000	0	1	0	1	-360	360	0.0000	0.0000	0.0000	0.0000	0.0000	0.0000	0.0000	0.0000;
	40	61	0.01903	0.0765	0	1000	1000	0	1	0	1	-360	360	0.0000	0.0000	0.0000	0.0000	0.0000	0.0000	0.0000	0.0000;
	41	58	0.03265	0.17643	0	1000	1000	0	1	0	1	-360	360	0.0000	0.0000	0.0000	0.0000	0.0000	0.0000	0.0000	0.0000;
	41	59	0.00573	0.03453	0	1000	1000	0	1	0	1	-360	360	0.0000	0.0000	0.0000	0.0000	0.0000	0.0000	0.0000	0.0000;
	42	61	0.01699	0.06669	0	1000	1000	0	1	0	1	-360	360	0.0000	0.0000	0.0000	0.0000	0.0000	0.0000	0.0000	0.0000;
	48	53	0.00484	0.02823	0.0072	215	215	0	1	0	1	-360	360	0.0000	0.0000	0.0000	0.0000	0.0000	0.0000	0.0000	0.0000;
	49	57	0.03016	0.12376	0	1000	1000	0	1	0	1	-360	360	0.0000	0.0000	0.0000	0.0000	0.0000	0.0000	0.0000	0.0000;
	49	60	0.01283	0.06813	0	1000	1000	0	1	0	1	-360	360	0.0000	0.0000	0.0000	0.0000	0.0000	0.0000	0.0000	0.0000;
	49	62	0.07422	0.47335	0	1000	1000	0	1	0	1	-360	360	0.0000	0.0000	0.0000	0.0000	0.0000	0.0000	0.0000	0.0000;
	53	55	0.0018	0.0182	0.0094	470	470	0	1	0	1	-360	360	0.0000	0.0000	0.0000	0.0000	0.0000	0.0000	0.0000	0.0000;
	53	74	0.00695	0.04054	0.0112	215	215	0	1	0	1	-360	360	0.0000	0.0000	0.0000	0.0000	0.0000	0.0000	0.0000	0.0000;
	53	761	0.00058	0.00572	0.00264	470	470	0	1	0	1	-360	360	0.0000	0.0000	0.0000	0.0000	0.0000	0.0000	0.0000	0.0000;
	54	66	0.00154	0.012	0.0072	382	382	0	1	0	1	-360	360	0.0000	0.0000	0.0000	0.0000	0.0000	0.0000	0.0000	0.0000;
	55	760	0.0032	0.0134	0.0126	250	310	0	1	0	1	-360	360	0.0000	0.0000	0.0000	0.0000	0.0000	0.0000	0.0000	0.0000;
	55	761	0.00125	0.01243	0.0067	523	523	0	1	0	1	-360	360	0.0000	0.0000	0.0000	0.0000	0.0000	0.0000	0.0000	0.0000;
	57	58	0.03283	0.25216	0	1000	1000	0	1	0	1	-360	360	0.0000	0.0000	0.0000	0.0000	0.0000	0.0000	0.0000	0.0000;
	57	60	0.04972	0.14824	0	1000	1000	0	1	0	1	-360	360	0.0000	0.0000	0.0000	0.0000	0.0000	0.0000	0.0000	0.0000;
	57	61	0.05223	0.38542	0	1000	1000	0	1	0	1	-360	360	0.0000	0.0000	0.0000	0.0000	0.0000	0.0000	0.0000	0.0000;
	57	62	0.14464	0.5962	0	1000	1000	0	1	0	1	-360	360	0.0000	0.0000	0.0000	0.0000	0.0000	0.0000	0.0000	0.0000;
	58	61	0.07018	0.39743	0	1000	1000	0	1	0	1	-360	360	0.0000	0.0000	0.0000	0.0000	0.0000	0.0000	0.0000	0.0000;
	60	62	0.36263	1.71702	0	1000	1000	0	1	0	1	-360	360	0.0000	0.0000	0.0000	0.0000	0.0000	0.0000	0.0000	0.0000;
	62	694	0.1276	0.2083	0	36	36	0	1	0	1	-360	360	0.0000	0.0000	0.0000	0.0000	0.0000	0.0000	0.0000	0.0000;
	63	68	0.0014	0.0116	0.0038	286	286	0	1	0	1	-360	360	0.0000	0.0000	0.0000	0.0000	0.0000	0.0000	0.0000	0.0000;
	64	70	0.00175	0.01451	0.0046	286	286	0	1	0	1	-360	360	0.0000	0.0000	0.0000	0.0000	0.0000	0.0000	0.0000	0.0000;
	69	89	0.00124	0.01034	0.0032	286	286	0	1	0	1	-360	360	0.0000	0.0000	0.0000	0.0000	0.0000	0.0000	0.0000	0.0000;
	70	72	0.00171	0.01393	0.0046	286	286	0	1	0	1	-360	360	0.0000	0.0000	0.0000	0.0000	0.0000	0.0000	0.0000	0.0000;
	72	73	0.00088	0.00704	0.0024	286	286	0	1	0	1	-360	360	0.0000	0.0000	0.0000	0.0000	0.0000	0.0000	0.0000	0.0000;
	73	74	0.00076	0.00627	0.002	286	286	0	1	0	1	-360	360	0.0000	0.0000	0.0000	0.0000	0.0000	0.0000	0.0000	0.0000;
	74	89	0.00064	0.00535	0.00172	286	286	0	1	0	1	-360	360	0.0000	0.0000	0.0000	0.0000	0.0000	0.0000	0.0000	0.0000;
	75	668	0.0007	0.0039	0.001	215	215	0	1	0	1	-360	360	0.0000	0.0000	0.0000	0.0000	0.0000	0.0000	0.0000	0.0000;
	76	81	0.0101	0.0645	0.0318	250	250	0	1	0	1	-360	360	0.0000	0.0000	0.0000	0.0000	0.0000	0.0000	0.0000	0.0000;
	76	82	0.0074	0.047	0.0464	250	250	0	1	0	1	-360	360	0.0000	0.0000	0.0000	0.0000	0.0000	0.0000	0.0000	0.0000;
	76	87	0.01109	0.07085	0.0348	250	250	0	1	0	1	-360	360	0.0000	0.0000	0.0000	0.0000	0.0000	0.0000	0.0000	0.0000;
	76	88	0.00628	0.06689	0.0464	500	500	0	1	0	1	-360	360	0.0000	0.0000	0.0000	0.0000	0.0000	0.0000	0.0000	0.0000;
	77	78	0.0016	0.0109	0.0056	250	250	0	1	0	1	-360	360	0.0000	0.0000	0.0000	0.0000	0.0000	0.0000	0.0000	0.0000;
	77	81	0.012	0.0771	0.0376	250	250	0	1	0	1	-360	360	0.0000	0.0000	0.0000	0.0000	0.0000	0.0000	0.0000	0.0000;
	78	79	0.0014	0.0088	0.0042	250	250	0	1	0	1	-360	360	0.0000	0.0000	0.0000	0.0000	0.0000	0.0000	0.0000	0.0000;
	78	88	0.00918	0.09776	0.0678	500	500	0	1	0	1	-360	360	0.0000	0.0000	0.0000	0.0000	0.0000	0.0000	0.0000	0.0000;
	79	80	0.0101	0.0643	0.0316	250	250	0	1	0	1	-360	360	0.0000	0.0000	0.0000	0.0000	0.0000	0.0000	0.0000	0.0000;
	80	3666	0.021	0.136	0.066	250	250	0	1	0	1	-360	360	0.0000	0.0000	0.0000	0.0000	0.0000	0.0000	0.0000	0.0000;
	84	3665	0.0241	0.1472	0.268	240	240	0	1	0	1	-360	360	0.0000	0.0000	0.0000	0.0000	0.0000	0.0000	0.0000	0.0000;
	85	86	0.0186	0.1191	0.0584	250	250	0	1	0	1	-360	360	0.0000	0.0000	0.0000	0.0000	0.0000	0.0000	0.0000	0.0000;
	85	3667	0.0037	0.02	0.0178	250	250	0	1	0	1	-360	360	0.0000	0.0000	0.0000	0.0000	0.0000	0.0000	0.0000	0.0000;
	85	4434	0.0153	0.0885	0.0434	250	250	0	1	0	1	-360	360	0.0000	0.0000	0.0000	0.0000	0.0000	0.0000	0.0000	0.0000;
	87	3667	0.01596	0.10202	0.05	250	250	0	1	0	1	-360	360	0.0000	0.0000	0.0000	0.0000	0.0000	0.0000	0.0000	0.0000;
	90	537	0.0019	0.0209	0.226	1000	1250	0	1	0	1	-360	360	0.0000	0.0000	0.0000	0.0000	0.0000	0.0000	0.0000	0.0000;
	90	1578	0.0011	0.0119	0.202	1195	1315	0	1	0	1	-360	360	0.0000	0.0000	0.0000	0.0000	0.0000	0.0000	0.0000	0.0000;
	91	326	0	1	0	0	0	0	1	0	1	-360	360	0.0000	0.0000	0.0000	0.0000	0.0000	0.0000	0.0000	0.0000;
	92	93	0.00353	0.0388	0.4208	621	700	0	1	0	1	-360	360	0.0000	0.0000	0.0000	0.0000	0.0000	0.0000	0.0000	0.0000;
	92	94	0.00267	0.0418	0.4132	927	1100	0	1	0	1	-360	360	0.0000	0.0000	0.0000	0.0000	0.0000	0.0000	0.0000	0.0000;
	92	103	0.00276	0.0292	0.3102	927	1100	0	1	0	1	-360	360	0.0000	0.0000	0.0000	0.0000	0.0000	0.0000	0.0000	0.0000;
	92	326	0.00145	0.0153	0.6556	927	1100	0	1	0	1	-360	360	0.0000	0.0000	0.0000	0.0000	0.0000	0.0000	0.0000	0.0000;
	94	98	0.00059	0.00685	0.1208	1460	1718	0	1	0	1	-360	360	0.0000	0.0000	0.0000	0.0000	0.0000	0.0000	0.0000	0.0000;
	95	3489	0.0005	0.0104	0.785	1386	1593	0	1	0	1	-360	360	0.0000	0.0000	0.0000	0.0000	0.0000	0.0000	0.0000	0.0000;
	96	97	0.00114	0.0141	0.2262	956	1100	0	1	0	1	-360	360	0.0000	0.0000	0.0000	0.0000	0.0000	0.0000	0.0000	0.0000;
	97	103	0.00693	0.0818	1.1576	929	1115	0	1	0	1	-360	360	0.0000	0.0000	0.0000	0.0000	0.0000	0.0000	0.0000	0.0000;
	99	100	0.00056	0.0116	5.806	4174	4800	0	1	0	1	-360	360	0.0000	0.0000	0.0000	0.0000	0.0000	0.0000	0.0000	0.0000;
	99	109	0.00014	0.00295	1.49	4174	4800	0	1	0	1	-360	360	0.0000	0.0000	0.0000	0.0000	0.0000	0.0000	0.0000	0.0000;
	99	345	0.00013	0.00281	1.406	3975	4570	0	1	0	1	-360	360	0.0000	0.0000	0.0000	0.0000	0.0000	0.0000	0.0000	0.0000;
	100	104	0.00022	0.0045	2.264	4174	4800	0	1	0	1	-360	360	0.0000	0.0000	0.0000	0.0000	0.0000	0.0000	0.0000	0.0000;
	101	3659	0.0006	0.0115	0.91	1710	1920	0	1	0	1	-360	360	0.0000	0.0000	0.0000	0.0000	0.0000	0.0000	0.0000	0.0000;
	102	109	7e-05	0.00153	0.764	4174	4800	0	1	0	1	-360	360	0.0000	0.0000	0.0000	0.0000	0.0000	0.0000	0.0000	0.0000;
	102	112	0.00018	0.00432	2.2	3000	4000	0	1	0	1	-360	360	0.0000	0.0000	0.0000	0.0000	0.0000	0.0000	0.0000	0.0000;
	102	344	0.0001	0.00292	1.498	3975	4174	0	1	0	1	-360	360	0.0000	0.0000	0.0000	0.0000	0.0000	0.0000	0.0000	0.0000;
	104	106	0.00029	0.00602	3.018	3975	4174	0	1	0	1	-360	360	0.0000	0.0000	0.0000	0.0000	0.0000	0.0000	0.0000	0.0000;
	105	3127	0.00104	0.024	1.9316	1710	1920	0	1	0	1	-360	360	0.0000	0.0000	0.0000	0.0000	0.0000	0.0000	0.0000	0.0000;
	106	108	0.0019	0.00523	2.656	666	756	0	1	0	1	-360	360	0.0000	0.0000	0.0000	0.0000	0.0000	0.0000	0.0000	0.0000;
	107	112	0.00027	0.00624	3.144	3313	3975	0	1	0	1	-360	360	0.0000	0.0000	0.0000	0.0000	0.0000	0.0000	0.0000	0.0000;
	107	336	0.00021	0.00449	2.248	3313	3975	0	1	0	1	-360	360	0.0000	0.0000	0.0000	0.0000	0.0000	0.0000	0.0000	0.0000;
	109	110	0.00018	0.00526	2.646	4174	4800	0	1	0	1	-360	360	0.0000	0.0000	0.0000	0.0000	0.0000	0.0000	0.0000	0.0000;
	109	340	0.00013	0.00382	1.928	3000	4000	0	1	0	1	-360	360	0.0000	0.0000	0.0000	0.0000	0.0000	0.0000	0.0000	0.0000;
	111	3659	0.0006	0.0084	0.77418	2300	2530	0	1	0	1	-360	360	0.0000	0.0000	0.0000	0.0000	0.0000	0.0000	0.0000	0.0000;
	111	3662	0.0002	0.0027	0.2475	2300	2530	0	1	0	1	-360	360	0.0000	0.0000	0.0000	0.0000	0.0000	0.0000	0.0000	0.0000;
	112	340	3e-05	0.00101	0.512	3975	4174	0	1	0	1	-360	360	0.0000	0.0000	0.0000	0.0000	0.0000	0.0000	0.0000	0.0000;
	113	116	0.00963	0.0421	0	0	0	0	1	0	1	-360	360	0.0000	0.0000	0.0000	0.0000	0.0000	0.0000	0.0000	0.0000;
	113	117	0.0029	0.01315	0.014	412	524	0	1	0	1	-360	360	0.0000	0.0000	0.0000	0.0000	0.0000	0.0000	0.0000	0.0000;
	113	118	0.0227	0.0776	0.01974	100	124	0	1	0	1	-360	360	0.0000	0.0000	0.0000	0.0000	0.0000	0.0000	0.0000	0.0000;
	113	121	0.0108	0.0373	0	0	0	0	1	0	1	-360	360	0.0000	0.0000	0.0000	0.0000	0.0000	0.0000	0.0000	0.0000;
	113	122	0.0226	0.07417	0	0	0	0	1	0	1	-360	360	0.0000	0.0000	0.0000	0.0000	0.0000	0.0000	0.0000	0.0000;
	113	136	0.051	0.1825	0.047	196	220	0	1	0	1	-360	360	0.0000	0.0000	0.0000	0.0000	0.0000	0.0000	0.0000	0.0000;
	114	118	0.0341	0.1163	0.0296	172	172	0	1	0	1	-360	360	0.0000	0.0000	0.0000	0.0000	0.0000	0.0000	0.0000	0.0000;
	114	3447	0.0179	0.0591	0.015	161	161	0	1	0	1	-360	360	0.0000	0.0000	0.0000	0.0000	0.0000	0.0000	0.0000	0.0000;
	115	119	0.00086	0.01	0.00322	399	480	0	1	0	1	-360	360	0.0000	0.0000	0.0000	0.0000	0.0000	0.0000	0.0000	0.0000;
	115	124	0.00092	0.011	0.00346	399	480	0	1	0	1	-360	360	0.0000	0.0000	0.0000	0.0000	0.0000	0.0000	0.0000	0.0000;
	116	119	0.00129	0.0154	0.00484	220	269	0	1	0	1	-360	360	0.0000	0.0000	0.0000	0.0000	0.0000	0.0000	0.0000	0.0000;
	117	124	0.008	0.00956	0.003	399	480	0	1	0	1	-360	360	0.0000	0.0000	0.0000	0.0000	0.0000	0.0000	0.0000	0.0000;
	119	120	0.0036	0.0172	0.0044	206	250	0	1	0	1	-360	360	0.0000	0.0000	0.0000	0.0000	0.0000	0.0000	0.0000	0.0000;
	119	124	0.00178	0.021	0.00668	399	480	0	1	0	1	-360	360	0.0000	0.0000	0.0000	0.0000	0.0000	0.0000	0.0000	0.0000;
	120	134	0.025	0.119	0.0306	250	293	0	1	0	1	-360	360	0.0000	0.0000	0.0000	0.0000	0.0000	0.0000	0.0000	0.0000;
	121	3439	0.02084	0.06895	0.01758	156	207	0	1	0	1	-360	360	0.0000	0.0000	0.0000	0.0000	0.0000	0.0000	0.0000	0.0000;
	122	123	0.0046	0.016	0.004	208	220	0	1	0	1	-360	360	0.0000	0.0000	0.0000	0.0000	0.0000	0.0000	0.0000	0.0000;
	123	137	0.0212	0.0835	0.0218	207	235	0	1	0	1	-360	360	0.0000	0.0000	0.0000	0.0000	0.0000	0.0000	0.0000	0.0000;
	125	127	0.0123	0.0431	0.0104	136	177	0	1	0	1	-360	360	0.0000	0.0000	0.0000	0.0000	0.0000	0.0000	0.0000	0.0000;
	125	129	0.0032	0.0156	0.0038	185	244	0	1	0	1	-360	360	0.0000	0.0000	0.0000	0.0000	0.0000	0.0000	0.0000	0.0000;
	125	130	0.00072	0.00459	0.00128	307	393	0	1	0	1	-360	360	0.0000	0.0000	0.0000	0.0000	0.0000	0.0000	0.0000	0.0000;
	125	131	0.00219	0.01393	0.0039	307	393	0	1	0	1	-360	360	0.0000	0.0000	0.0000	0.0000	0.0000	0.0000	0.0000	0.0000;
	125	133	0.0273	0.0775	0.0188	141	185	0	1	0	1	-360	360	0.0000	0.0000	0.0000	0.0000	0.0000	0.0000	0.0000	0.0000;
	125	137	0.0259	0.1486	0.0398	191	200	0	1	0	1	-360	360	0.0000	0.0000	0.0000	0.0000	0.0000	0.0000	0.0000	0.0000;
	126	131	0.03765	0.10735	0.0265	136	179	0	1	0	1	-360	360	0.0000	0.0000	0.0000	0.0000	0.0000	0.0000	0.0000	0.0000;
	126	132	0.0019	0.00647	0.0068	191	200	0	1	0	1	-360	360	0.0000	0.0000	0.0000	0.0000	0.0000	0.0000	0.0000	0.0000;
	126	185	0.03765	0.10735	0.02646	136	179	0	1	0	1	-360	360	0.0000	0.0000	0.0000	0.0000	0.0000	0.0000	0.0000	0.0000;
	127	3128	0.0134	0.4212	0.011	150	150	0	1	0	1	-360	360	0.0000	0.0000	0.0000	0.0000	0.0000	0.0000	0.0000	0.0000;
	128	129	0.019	0.0915	0	0	0	0	1	0	1	-360	360	0.0000	0.0000	0.0000	0.0000	0.0000	0.0000	0.0000	0.0000;
	128	153	0.0157	0.0753	0.019	185	244	0	1	0	1	-360	360	0.0000	0.0000	0.0000	0.0000	0.0000	0.0000	0.0000	0.0000;
	130	185	0.00291	0.01852	0.00518	307	393	0	1	0	1	-360	360	0.0000	0.0000	0.0000	0.0000	0.0000	0.0000	0.0000	0.0000;
	132	3441	0.0079	0.0571	0.0246	283	301	0	1	0	1	-360	360	0.0000	0.0000	0.0000	0.0000	0.0000	0.0000	0.0000	0.0000;
	132	3533	0.0258	0.0989	0.02746	143	162	0	1	0	1	-360	360	0.0000	0.0000	0.0000	0.0000	0.0000	0.0000	0.0000	0.0000;
	132	3535	0.0141	0.0444	0.0108	143	162	0	1	0	1	-360	360	0.0000	0.0000	0.0000	0.0000	0.0000	0.0000	0.0000	0.0000;
...
];

%%%% generator data
%%	bus	Pg	Qg	Qmax	Qmin	Vg	mBase	status	Pmax	Pmin	mu_Pmax	mu_Pmin	mu_Qmax	mu_Qmin
mpc.gen = [
	1	798	59.497	280	-280	1.009	100	1	9999	-9999	0	0	0	0;
	2	1218	-156.696	528	-246	1.026	100	1	9999	-9999	0	0	0	0;
	7	970	399.228	450	0	1.05	100	1	9999	-9999	0	0	0	0;
	8	140	100	100	0	1.05	100	1	9999	-9999	0	0	0	0;
	9	225	6.593	50	0	1	100	1	9999	-9999	0	0	0	0;
	18	255.43	172.835	500	0	1.05	100	1	9999	-9999	0	0	0	0;
	19	1400	601.065	658	-100	1.04	100	1	9999	-9999	0	0	0	0;
	20	231	138	138	-93	1.05	100	1	9999	-9999	0	0	0	0;
	21	375.11	66.959	200	-100	1.015	100	1	9999	-9999	0	0	0	0;
	22	56	22.419	72	-3	1.015	100	1	9999	-9999	0	0	0	0;
	76	606.73	237.882	350	-250	1.035	100	1	9999	-9999	0	0	0	0;
	78	300	222.54	350	-150	1.035	100	1	9999	-9999	0	0	0	0;
	88	300	-15.779	200	-100	1.035	100	1	9999	-9999	0	0	0	0;
	91	1	0	0	0	1	100	1	9999	-9999	0	0	0	0;
	98	800	-120	250	-120	1	100	1	9999	-9999	0	0	0	0;
	102	1100	0	460	0	0.976	100	1	9999	-9999	0	0	0	0;
	103	400	-20.883	250	-150	1.025	100	1	9999	-9999	0	0	0	0;
	112	930	-200.269	420	-375	0.989	100	1	9999	-9999	0	0	0	0;
	119	0	2.748	250	-125	1	100	1	9999	-9999	0	0	0	0;
	125	0	-7.369	272	-133	1	100	1	9999	-9999	0	0	0	0;
	134	0	38.478	140	-60	1	100	1	9999	-9999	0	0	0	0;
	135	40	30	30	-15	1	100	1	9999	-9999	0	0	0	0;
	151	120	-168.059	95	-250	1.017	100	1	9999	-9999	0	0	0	0;
	153	75	-65	30	-65	1	100	1	9999	-9999	0	0	0	0;
	157	0	-50	0	-50	1	100	1	9999	-9999	0	0	0	0;
	172	705	-100	160	-100	1.009	100	1	9999	-9999	0	0	0	0;
	181	0	-50	0	-50	1	100	1	9999	-9999	0	0	0	0;
	197	0	-50	0	-50	1	100	1	9999	-9999	0	0	0	0;
	199	0	-50	0	-50	1	100	1	9999	-9999	0	0	0	0;
	201	0	-26.244	0	-50	1	100	1	9999	-9999	0	0	0	0;
	208	0	-50	0	-50	1	100	1	9999	-9999	0	0	0	0;
	219	0	-22.267	0	-50	1	100	1	9999	-9999	0	0	0	0;
	223	0	0	0	-50	1	100	1	9999	-9999	0	0	0	0;
	224	357.08	64.234	280	-180	1.017	100	1	9999	-9999	0	0	0	0;
	232	320	80.837	205	-95	1.035	100	1	9999	-9999	0	0	0	0;
	238	300	-3.964	180	-60	1.026	100	1	9999	-9999	0	0	0	0;
	258	0	-281.539	0	-450	1	100	1	9999	-9999	0	0	0	0;
	270	260	51.237	134	-80	1.009	100	1	9999	-9999	0	0	0	0;
	276	0	5	5	-3	0.996	100	1	9999	-9999	0	0	0	0;
	326	965	-60	180	-60	1	100	1	9999	-9999	0	0	0	0;
	327	1000	-107.864	375	-200	1.009	100	1	9999	-9999	0	0	0	0;
	330	600	128.693	260	-50	1.009	100	1	9999	-9999	0	0	0	0;
	336	600	150.916	200	-100	0.976	100	1	9999	-9999	0	0	0	0;
	340	1340	162.83	480	40	0.989	100	1	9999	-9999	0	0	0	0;
	370	600	190	190	-100	1.009	100	1	9999	-9999	0	0	0	0;
	376	500	173.272	250	-150	1.004	100	1	9999	-9999	0	0	0	0;
	404	415	121.238	180	-60	1.025	100	1	9999	-9999	0	0	0	0;
	442	0	80	80	-105	1.013	100	1	9999	-9999	0	0	0	0;
	480	1240	132.253	700	-300	1.025	100	1	9999	-9999	0	0	0	0;
	484	130	74.355	89	0	1.025	100	1	9999	-9999	0	0	0	0;
	485	95	58	58	0	1.025	100	1	9999	-9999	0	0	0	0;
	514	295	120.934	129	0	1.025	100	1	9999	-9999	0	0	0	0;
	537	585	20.264	180	-120	1.017	100	1	9999	-9999	0	0	0	0;
	538	380	1.471	200	-200	1.048	100	1	9999	-9999	0	0	0	0;
	542	0	180.528	345	-220	1.025	100	1	9999	-9999	0	0	0	0;
	547	1050	95.764	500	-200	1.03	100	1	9999	-9999	0	0	0	0;
	554	1100	-255.316	500	-300	1	100	1	9999	-9999	0	0	0	0;
	606	0	37.046	68.6	-75	1.01	100	1	9999	-9999	0	0	0	0;
	607	150	35.697	150	-50	1.043	100	1	9999	-9999	0	0	0	0;
	649	660	194.164	310	-250	1.03	100	1	9999	-9999	0	0	0	0;
	651	350	92.349	175	-85	1.05	100	1	9999	-9999	0	0	0	0;
	652	140	25.632	60	-60	1.01	100	1	9999	-9999	0	0	0	0;
	660	738.19	-54.845	750	-375	1.03	100	1	9999	-9999	0	0	0	0;
	661	520	42.955	250	-125	1.03	100	1	9999	-9999	0	0	0	0;
	666	175	90	90	-45	1.03	100	1	9999	-9999	0	0	0	0;
	698	205	7.84	195	-100	1.03	100	1	9999	-9999	0	0	0	0;
	700	274	-5.423	250	-125	1.025	100	1	9999	-9999	0	0	0	0;
	701	150	81.302	150	-75	1.025	100	1	9999	-9999	0	0	0	0;
	703	70	65	65	-30	1.03	100	1	9999	-9999	0	0	0	0;
	715	2400	-67.682	1300	-920	1.043	100	1	9999	-9999	0	0	0	0;
	720	450	68.658	200	-200	1.04	100	1	9999	-9999	0	0	0	0;
	730	450	69.038	200	-200	1.04	100	1	9999	-9999	0	0	0	0;
	736	150	63.184	200	-70	1.03	100	1	9999	-9999	0	0	0	0;
	742	300	74.058	270	-175	1.03	100	1	9999	-9999	0	0	0	0;
	747	0	10	10	10	0.9975	100	1	9999	-9999	0	0	0	0;
	749	96.84	-65	135	-65	1	100	1	9999	-9999	0	0	0	0;
	759	150	96.249	200	-70	1.014	100	1	9999	-9999	0	0	0	0;
	767	50	13.228	40	-20	1.013	100	1	9999	-9999	0	0	0	0;
	779	435	67.331	170	-113	1.04	100	1	9999	-9999	0	0	0	0;
	781	100	40.557	70	-70	1.03	100	1	9999	-9999	0	0	0	0;
	807	1100	136.708	766.7	-399.7	1.05	100	1	9999	-9999	0	0	0	0;
	824	280	89.202	100	-50.3	1.015	100	1	9999	-9999	0	0	0	0;
	827	723	263.524	323	-160	1	100	1	9999	-9999	0	0	0	0;
	832	-3.2	0	0	0	1.003	100	1	9999	-9999	0	0	0	0;
	833	2	0	0	0	1.0056	100	1	9999	-9999	0	0	0	0;
	838	-1.8	0	0	0	0.9754	100	1	9999	-9999	0	0	0	0;
	846	0	15.8	15.8	15.8	0.9834	100	1	9999	-9999	0	0	0	0;
	847	-7.3	0	0	0	1.0363	100	1	9999	-9999	0	0	0	0;
	849	590	144.669	376	-201	1.049	100	1	9999	-9999	0	0	0	0;
	851	261	39.728	150	-53	1.049	100	1	9999	-9999	0	0	0	0;
	852	198	44.92	119	-59	1.049	100	1	9999	-9999	0	0	0	0;
	854	32.8	3.4	3.4	3.4	1.0115	100	1	9999	-9999	0	0	0	0;
	857	5.8	1.1	1.1	1.1	1.013	100	1	9999	-9999	0	0	0	0;
	858	63	13.5	13.5	13.5	1.0238	100	1	9999	-9999	0	0	0	0;
	865	800	119.757	668	-639	1.043	100	1	9999	-9999	0	0	0	0;
	868	12	0	0	0	1.0003	100	1	9999	-9999	0	0	0	0;
	869	9	0	0	0	0.9822	100	1	9999	-9999	0	0	0	0;
	870	520	114.012	256	-204	1.049	100	1	9999	-9999	0	0	0	0;
	872	-23.9	0	0	0	1.0118	100	1	9999	-9999	0	0	0	0;
	878	757.91	-180.164	648	-1181	1.042	100	1	9999	-9999	0	0	0	0;
	880	2	0	0	0	1.0025	100	1	9999	-9999	0	0	0	0;
	881	-13.5	0	0	0	0.9741	100	1	9999	-9999	0	0	0	0;
	885	635	46.347	510	-364	1.035	100	1	9999	-9999	0	0	0	0;
	886	-24.5	0	0	0	1.0265	100	1	9999	-9999	0	0	0	0;
	888	-26.3	0	0	0	1.0297	100	1	9999	-9999	0	0	0	0;
	896	18	0	0	0	0.9998	100	1	9999	-9999	0	0	0	0;
	898	783	92.603	527	-360	1.035	100	1	9999	-9999	0	0	0	0;
	902	9.9	0	0	0	1.0119	100	1	9999	-9999	0	0	0	0;
	905	150	76	76	-36	1.034	100	1	9999	-9999	0	0	0	0;
	906	150	65.158	76	-47	1.034	100	1	9999	-9999	0	0	0	0;
	910	310	125.86	186	-132	1.049	100	1	9999	-9999	0	0	0	0;
	916	-5.3	0	0	0	1.0108	100	1	9999	-9999	0	0	0	0;
	918	-20.1	0	0	0	1.0039	100	1	9999	-9999	0	0	0	0;
	920	-8.5	0	0	0	0.9915	100	1	9999	-9999	0	0	0	0;
	921	-3.2	0	0	0	1.0019	100	1	9999	-9999	0	0	0	0;
	922	-19.4	0	0	0	0.9753	100	1	9999	-9999	0	0	0	0;
	923	50	1.544	30	0	0.978	100	1	9999	-9999	0	0	0	0;
	924	-11.6	0	0	0	0.9899	100	1	9999	-9999	0	0	0	0;
	928	664	-120	240	-120	1.03	100	1	9999	-9999	0	0	0	0;
	952	191	60.783	200	-50	1.05	100	1	9999	-9999	0	0	0	0;
	955	1093	324.93	415	-210	1.025	100	1	9999	-9999	0	0	0	0;
	960	290	-46.491	260	-130	1.03	100	1	9999	-9999	0	0	0	0;
	962	110	-11.411	51	-23	1.05	100	1	9999	-9999	0	0	0	0;
	982	147	105	105	-35	1.1	100	1	9999	-9999	0	0	0	0;
	984	1500	-111.432	720	-560	1.01	100	1	9999	-9999	0	0	0	0;
	986	1500	15.017	720	-560	1.01	100	1	9999	-9999	0	0	0	0;
	1004	207	-7.909	210	-20	1.025	100	1	9999	-9999	0	0	0	0;
	1005	280	97.18	235	20	1.05	100	1	9999	-9999	0	0	0	0;
	1007	135	47.389	105	-10	1.08	100	1	9999	-9999	0	0	0	0;
	1008	685	-187.036	380	-260	1.03	100	1	9999	-9999	0	0	0	0;
	1010	405	90.908	315	10	1.08	100	1	9999	-9999	0	0	0	0;
	1021	200	190	190	-40	1.03	100	1	9999	-9999	0	0	0	0;
	1022	497.91	126.524	280	-135	1.025	100	1	9999	-9999	0	0	0	0;
	1039	890	140.851	300	-70	1.015	100	1	9999	-9999	0	0	0	0;
	1040	600	100.444	290	-80	0.995	100	1	9999	-9999	0	0	0	0;
	1041	30.7	27.98	160	-40	1	100	1	9999	-9999	0	0	0	0;
	1091	1205	222.44	438	-250	1.01	100	1	9999	-9999	0	0	0	0;
	1092	575	243.613	361	-150	1	100	1	9999	-9999	0	0	0	0;
	1093	262.48	38.951	208	0	1.007	100	1	9999	-9999	0	0	0	0;
	1094	0	-4.501	0	-34	1.017	100	1	9999	-9999	0	0	0	0;
	1095	0	-35.142	0	-62	1.017	100	1	9999	-9999	0	0	0	0;
	1096	97	220	220	0	1.018	100	1	9999	-9999	0	0	0	0;
	1097	635	26.683	433	-150	1	100	1	9999	-9999	0	0	0	0;
	1098	565	318.034	370	0	1.04	100	1	9999	-9999	0	0	0	0;
	1099	339	67.845	275	0	1.018	100	1	9999	-9999	0	0	0	0;
	1200	810	74.707	369	45	1.015	100	1	9999	-9999	0	0	0	0;
	1201	24	18.6	77	5	1.01	100	1	9999	-9999	0	0	0	0;
	1202	557	239.154	305	128	1	100	1	9999	-9999	0	0	0	0;
	1203	143	54.936	134	29	1.01	100	1	9999	-9999	0	0	0	0;
	1204	109	21	72	21	0.992	100	1	9999	-9999	0	0	0	0;
	1205	171	69.011	81	34	1.01	100	1	9999	-9999	0	0	0	0;
	1208	25	24.528	68	6	1.01	100	1	9999	-9999	0	0	0	0;
	1209	25	32.449	57	6	1.01	100	1	9999	-9999	0	0	0	0;
	1210	25	8	74	8	1.01	100	1	9999	-9999	0	0	0	0;
	1211	48.1	97.65	123	9	1.01	100	1	9999	-9999	0	0	0	0;
	1270	2100	461.035	1200	-600	1.015	100	1	9999	-9999	0	0	0	0;
	1271	1620	107.373	1000	-1000	1.015	100	1	9999	-9999	0	0	0	0;
	1272	162.13	76.903	210	-100	1.03	100	1	9999	-9999	0	0	0	0;
	1273	175	28.283	145	-75	1.05	100	1	9999	-9999	0	0	0	0;
	1274	50	45.602	110	-30	1.05	100	1	9999	-9999	0	0	0	0;
	1275	170	-27.916	150	-35	0.985	100	1	9999	-9999	0	0	0	0;
	1276	85	75.837	120	-40	1	100	1	9999	-9999	0	0	0	0;
	1277	90	5.285	60	-24	1.01	100	1	9999	-9999	0	0	0	0;
	1278	120	37.812	100	-75	1.007	100	1	9999	-9999	0	0	0	0;
	1380	0	20	20	-10	1.052	100	1	9999	-9999	0	0	0	0;
	1383	30	20.258	45	-22	1.052	100	1	9999	-9999	0	0	0	0;
	1384	30	25	25	-12	1.052	100	1	9999	-9999	0	0	0	0;
	1401	20	34.615	35	0	1.015	100	1	9999	-9999	0	0	0	0;
	1410	150	75.422	140	-30	1.037	100	1	9999	-9999	0	0	0	0;
	1426	333	320	320	0	0.993	100	1	9999	-9999	0	0	0	0;
	1437	0	0	0	0	0.97	100	1	9999	-9999	0	0	0	0;
	1448	0	0	0	0	0.957	100	1	9999	-9999	0	0	0	0;
	1449	150	129.695	130	0	0.985	100	1	9999	-9999	0	0	0	0;
	1450	0	0	0	0	0.985	100	1	9999	-9999	0	0	0	0;
	1451	0	0	0	0	0.985	100	1	9999	-9999	0	0	0	0;
	1452	0	0	0	0	0.99	100	1	9999	-9999	0	0	0	0;
	1489	0	0	0	0	0.97	100	1	9999	-9999	0	0	0	0;
	1490	0	0	0	0	0.97	100	1	9999	-9999	0	0	0	0;
	1491	0	0	0	0	0.97	100	1	9999	-9999	0	0	0	0;
	1492	0	0	0	0	0.97	100	1	9999	-9999	0	0	0	0;
	1493	0	0	0	0	0.97	100	1	9999	-9999	0	0	0	0;
	1494	0	0	0	0	0.97	100	1	9999	-9999	0	0	0	0;
	1542	80	83.793	102	0	1	100	1	9999	-9999	0	0	0	0;
	1543	66.54	70.43	86	0	1	100	1	9999	-9999	0	0	0	0;
	1556	0	0	0	0	1.035	100	1	9999	-9999	0	0	0	0;
	1557	0	0	0	0	1.005	100	1	9999	-9999	0	0	0	0;
	1558	0	0	0	0	1.005	100	1	9999	-9999	0	0	0	0;
	1577	600	120.688	300	-124	1.02	100	1	9999	-9999	0	0	0	0;
	1580	300	27.847	255	-99	1.025	100	1	9999	-9999	0	0	0	0;
	1581	1000	216.971	540	-249	1.01	100	1	9999	-9999	0	0	0	0;
	1582	415	-60.06	225	-100	0.99	100	1	9999	-9999	0	0	0	0;
	1584	2024	247.147	920	-599	1.025	100	1	9999	-9999	0	0	0	0;
	1586	800	225.674	425	-149	1.02	100	1	9999	-9999	0	0	0	0;
	1588	1020	-0.192	500	-500	1.05	100	1	9999	-9999	0	0	0	0;
	1591	639	-4.248	400	-400	1.05	100	1	9999	-9999	0	0	0	0;
	1592	1920	-43.451	750	-750	1.05	100	1	9999	-9999	0	0	0	0;
	1594	1425	182.761	600	-600	1.05	100	1	9999	-9999	0	0	0	0;
	1599	170	94	94	0	1.015	100	1	9999	-9999	0	0	0	0;
	1600	80	96.26	150	0	1.005	100	1	9999	-9999	0	0	0	0;
	1601	10	7.881	52	-10	0.99	100	1	9999	-9999	0	0	0	0;
...
];

%%%% generator cost data
%%	1	startup	shutdown	n	x1	y1	...	xn	yn
%%	2	startup	shutdown	n	c(n-1)	...	c0
mpc.gencost = [
	1	0	0	3	0.01	0.1	10;
	1	0	0	3	0.01	0.1	10;
	1	0	0	3	0.01	0.1	10;
	1	0	0	3	0.01	0.1	10;
	1	0	0	3	0.01	0.1	10;
	1	0	0	3	0.01	0.1	10;
	1	0	0	3	0.01	0.1	10;
	1	0	0	3	0.01	0.1	10;
	1	0	0	3	0.01	0.1	10;
	1	0	0	3	0.01	0.1	10;
	1	0	0	3	0.01	0.1	10;
	1	0	0	3	0.01	0.1	10;
	1	0	0	3	0.01	0.1	10;
	1	0	0	3	0.01	0.1	10;
	1	0	0	3	0.01	0.1	10;
	1	0	0	3	0.01	0.1	10;
	1	0	0	3	0.01	0.1	10;
	1	0	0	3	0.01	0.1	10;
	1	0	0	3	0.01	0.1	10;
	1	0	0	3	0.01	0.1	10;
	1	0	0	3	0.01	0.1	10;
	1	0	0	3	0.01	0.1	10;
	1	0	0	3	0.01	0.1	10;
	1	0	0	3	0.01	0.1	10;
	1	0	0	3	0.01	0.1	10;
	1	0	0	3	0.01	0.1	10;
	1	0	0	3	0.01	0.1	10;
	1	0	0	3	0.01	0.1	10;
	1	0	0	3	0.01	0.1	10;
	1	0	0	3	0.01	0.1	10;
	1	0	0	3	0.01	0.1	10;
	1	0	0	3	0.01	0.1	10;
	1	0	0	3	0.01	0.1	10;
	1	0	0	3	0.01	0.1	10;
	1	0	0	3	0.01	0.1	10;
	1	0	0	3	0.01	0.1	10;
	1	0	0	3	0.01	0.1	10;
	1	0	0	3	0.01	0.1	10;
	1	0	0	3	0.01	0.1	10;
	1	0	0	3	0.01	0.1	10;
	1	0	0	3	0.01	0.1	10;
	1	0	0	3	0.01	0.1	10;
	1	0	0	3	0.01	0.1	10;
	1	0	0	3	0.01	0.1	10;
	1	0	0	3	0.01	0.1	10;
	1	0	0	3	0.01	0.1	10;
	1	0	0	3	0.01	0.1	10;
	1	0	0	3	0.01	0.1	10;
	1	0	0	3	0.01	0.1	10;
	1	0	0	3	0.01	0.1	10;
	1	0	0	3	0.01	0.1	10;
	1	0	0	3	0.01	0.1	10;
	1	0	0	3	0.01	0.1	10;
	1	0	0	3	0.01	0.1	10;
	1	0	0	3	0.01	0.1	10;
	1	0	0	3	0.01	0.1	10;
	1	0	0	3	0.01	0.1	10;
	1	0	0	3	0.01	0.1	10;
	1	0	0	3	0.01	0.1	10;
	1	0	0	3	0.01	0.1	10;
	1	0	0	3	0.01	0.1	10;
	1	0	0	3	0.01	0.1	10;
	1	0	0	3	0.01	0.1	10;
	1	0	0	3	0.01	0.1	10;
	1	0	0	3	0.01	0.1	10;
	1	0	0	3	0.01	0.1	10;
	1	0	0	3	0.01	0.1	10;
	1	0	0	3	0.01	0.1	10;
	1	0	0	3	0.01	0.1	10;
	1	0	0	3	0.01	0.1	10;
	1	0	0	3	0.01	0.1	10;
	1	0	0	3	0.01	0.1	10;
	1	0	0	3	0.01	0.1	10;
	1	0	0	3	0.01	0.1	10;
	1	0	0	3	0.01	0.1	10;
	1	0	0	3	0.01	0.1	10;
	1	0	0	3	0.01	0.1	10;
	1	0	0	3	0.01	0.1	10;
	1	0	0	3	0.01	0.1	10;
	1	0	0	3	0.01	0.1	10;
	1	0	0	3	0.01	0.1	10;
	1	0	0	3	0.01	0.1	10;
	1	0	0	3	0.01	0.1	10;
	1	0	0	3	0.01	0.1	10;
	1	0	0	3	0.01	0.1	10;
	1	0	0	3	0.01	0.1	10;
	1	0	0	3	0.01	0.1	10;
	1	0	0	3	0.01	0.1	10;
	1	0	0	3	0.01	0.1	10;
	1	0	0	3	0.01	0.1	10;
	1	0	0	3	0.01	0.1	10;
	1	0	0	3	0.01	0.1	10;
	1	0	0	3	0.01	0.1	10;
	1	0	0	3	0.01	0.1	10;
	1	0	0	3	0.01	0.1	10;
	1	0	0	3	0.01	0.1	10;
	1	0	0	3	0.01	0.1	10;
	1	0	0	3	0.01	0.1	10;
	1	0	0	3	0.01	0.1	10;
	1	0	0	3	0.01	0.1	10;
	1	0	0	3	0.01	0.1	10;
	1	0	0	3	0.01	0.1	10;
	1	0	0	3	0.01	0.1	10;
	1	0	0	3	0.01	0.1	10;
	1	0	0	3	0.01	0.1	10;
	1	0	0	3	0.01	0.1	10;
	1	0	0	3	0.01	0.1	10;
	1	0	0	3	0.01	0.1	10;
	1	0	0	3	0.01	0.1	10;
	1	0	0	3	0.01	0.1	10;
	1	0	0	3	0.01	0.1	10;
	1	0	0	3	0.01	0.1	10;
	1	0	0	3	0.01	0.1	10;
	1	0	0	3	0.01	0.1	10;
	1	0	0	3	0.01	0.1	10;
	1	0	0	3	0.01	0.1	10;
	1	0	0	3	0.01	0.1	10;
	1	0	0	3	0.01	0.1	10;
	1	0	0	3	0.01	0.1	10;
	1	0	0	3	0.01	0.1	10;
	1	0	0	3	0.01	0.1	10;
	1	0	0	3	0.01	0.1	10;
	1	0	0	3	0.01	0.1	10;
	1	0	0	3	0.01	0.1	10;
	1	0	0	3	0.01	0.1	10;
	1	0	0	3	0.01	0.1	10;
	1	0	0	3	0.01	0.1	10;
	1	0	0	3	0.01	0.1	10;
	1	0	0	3	0.01	0.1	10;
	1	0	0	3	0.01	0.1	10;
	1	0	0	3	0.01	0.1	10;
	1	0	0	3	0.01	0.1	10;
	1	0	0	3	0.01	0.1	10;
	1	0	0	3	0.01	0.1	10;
	1	0	0	3	0.01	0.1	10;
	1	0	0	3	0.01	0.1	10;
	1	0	0	3	0.01	0.1	10;
	1	0	0	3	0.01	0.1	10;
	1	0	0	3	0.01	0.1	10;
	1	0	0	3	0.01	0.1	10;
	1	0	0	3	0.01	0.1	10;
	1	0	0	3	0.01	0.1	10;
	1	0	0	3	0.01	0.1	10;
	1	0	0	3	0.01	0.1	10;
	1	0	0	3	0.01	0.1	10;
	1	0	0	3	0.01	0.1	10;
	1	0	0	3	0.01	0.1	10;
	1	0	0	3	0.01	0.1	10;
	1	0	0	3	0.01	0.1	10;
	1	0	0	3	0.01	0.1	10;
	1	0	0	3	0.01	0.1	10;
	1	0	0	3	0.01	0.1	10;
	1	0	0	3	0.01	0.1	10;
	1	0	0	3	0.01	0.1	10;
	1	0	0	3	0.01	0.1	10;
	1	0	0	3	0.01	0.1	10;
	1	0	0	3	0.01	0.1	10;
	1	0	0	3	0.01	0.1	10;
	1	0	0	3	0.01	0.1	10;
	1	0	0	3	0.01	0.1	10;
	1	0	0	3	0.01	0.1	10;
	1	0	0	3	0.01	0.1	10;
	1	0	0	3	0.01	0.1	10;
	1	0	0	3	0.01	0.1	10;
	1	0	0	3	0.01	0.1	10;
	1	0	0	3	0.01	0.1	10;
	1	0	0	3	0.01	0.1	10;
	1	0	0	3	0.01	0.1	10;
	1	0	0	3	0.01	0.1	10;
	1	0	0	3	0.01	0.1	10;
	1	0	0	3	0.01	0.1	10;
	1	0	0	3	0.01	0.1	10;
	1	0	0	3	0.01	0.1	10;
	1	0	0	3	0.01	0.1	10;
	1	0	0	3	0.01	0.1	10;
	1	0	0	3	0.01	0.1	10;
	1	0	0	3	0.01	0.1	10;
	1	0	0	3	0.01	0.1	10;
	1	0	0	3	0.01	0.1	10;
	1	0	0	3	0.01	0.1	10;
	1	0	0	3	0.01	0.1	10;
	1	0	0	3	0.01	0.1	10;
	1	0	0	3	0.01	0.1	10;
	1	0	0	3	0.01	0.1	10;
	1	0	0	3	0.01	0.1	10;
	1	0	0	3	0.01	0.1	10;
	1	0	0	3	0.01	0.1	10;
	1	0	0	3	0.01	0.1	10;
	1	0	0	3	0.01	0.1	10;
	1	0	0	3	0.01	0.1	10;
	1	0	0	3	0.01	0.1	10;
	1	0	0	3	0.01	0.1	10;
	1	0	0	3	0.01	0.1	10;
	1	0	0	3	0.01	0.1	10;
	1	0	0	3	0.01	0.1	10;
	1	0	0	3	0.01	0.1	10;
	1	0	0	3	0.01	0.1	10;
	1	0	0	3	0.01	0.1	10;
	1	0	0	3	0.01	0.1	10;
	1	0	0	3	0.01	0.1	10;
...
];
